#RADIOSS STARTER
#---1----|----2----|----3----|----4----|----5----|----6----|----7----|----8----|----9----|---10----|
# Inflation ABC letter C — OpenRadioss first light
# SI: kg, m, s, Pa. Do not retune μ or ρ.
# C-refine finer 1-to-4 of fine; same LAW42/PLOAD/ADYREL; do not retune μ/ρ
# LAW42 neo-Hookean (Ogden 1-term)
#   μ1      = 3151888.914285714 Pa   # grill eng. μ = (800 * 6894.757) / 1.75 ; not invented
#   α1      = 2
#   μp,αp   = 0 for p=2..10
#   ν       = 0.495  (≤ 0.495)
#   M       = 0  (no Prony)
#   Iform   = 1 (standard Ogden SED)
#   H0      = 0.000381 m  (0.015*0.0254)
#   ρ       = 1130 kg/m^3  # Desmopan 85085A ISO 1183-1; McMaster 1446T11 density not published
#   Gapmin  = 0.000762 m  # CONTACT_KISS = max(2*H0, 1e-4)
#   WARN_LAM= 2
# Mesh 15778 nodes, 15776 /SHELL quads (source 15776 quads + 0 orphan faceTris paired; SH3N=0)
# Midplane not remeshed (ship C.json). Cap orphans quadified / closed all-quad; no /SH3N.
# Rest enclosed volume V0 = 0.00038581394 m^3 (385.8 mL)
# Free-free: no /BCS. OpenRadioss explicit inertial-relief analogue = /ADYREL (engine)
#   + /DAMP Rayleigh mass (starter). Radioss has no PARAM,INREL (that is OptiStruct).
#   Closed /PLOAD is self-equilibrated (net F≈0); /ADYREL+/DAMP kill residual RB drift.
# PLOAD ramp 0 → 65000 Pa in 0.04s, hold to 0.05s (not MONVOL)
#---1----|----2----|----3----|----4----|----5----|----6----|----7----|----8----|----9----|---10----|
/BEGIN
Ainflate
      2024
                  kg                   m                   s
                  kg                   m                   s
/TITLE
Inflation ABC C — LAW42 NH /PLOAD first light (same μ, ρ=1130)
#---1----|----2----|----3----|----4----|----5----|----6----|----7----|----8----|----9----|---10----|
/DEF_SHELL
#    Ishell    Ismstr    Ithick     Iplas   Istrain   Ioffset               ISH3N    Idrill
        24         0         1         0         1         2                   2         1
#---1----|----2----|----3----|----4----|----5----|----6----|----7----|----8----|----9----|---10----|
/MAT/LAW42/1
Desmopan 85085A NH film; McMaster 1446T11 density not published
#              RHO_I
                1130
#                 Nu           sigma_cut           funIDbulk         Fscale_bulk         M     Iform
               0.495                 0.0                 0.0                 0.0         0         1
#               Mu_1                Mu_2                Mu_3                Mu_4                Mu_5
       3151888.91429                 0.0                 0.0                 0.0                 0.0
#               Mu_6                Mu_7                Mu_8                Mu_9               Mu_10
                 0.0                 0.0                 0.0                 0.0                 0.0
#            alpha_1             alpha_2             alpha_3             alpha_4             alpha_5
                   2                 0.0                 0.0                 0.0                 0.0
#            alpha_6             alpha_7             alpha_8             alpha_9            alpha_10
                 0.0                 0.0                 0.0                 0.0                 0.0
#---1----|----2----|----3----|----4----|----5----|----6----|----7----|----8----|----9----|---10----|
/PROP/SHELL/1
film membrane N=1 Ismstr=10 QEPH Ithick=1
#    Ishell    Ismstr     Ish3n    Idrill    Ipinch                  P_Thick_Fail
         1        10         2         1         0                           0.0
#                 Hm                  Hf                  Hr                  Dm                  Dn
                 0.0                 0.0                 0.0                0.05                 0.0
#         N                         Thick              Ashear              Ithick     Iplas      Ipos
         1                      0.000381                 0.0                   1         0         0
#---1----|----2----|----3----|----4----|----5----|----6----|----7----|----8----|----9----|---10----|
/PART/1
letter C all-quad film (15776 shells; SH3N=0)
         1         1         0
#---1----|----2----|----3----|----4----|----5----|----6----|----7----|----8----|----9----|---10----|
/NODE
         1     0.0136829958391      -0.05994740638               0.025
         2     0.0231639592862    -0.0591074588795               0.025
         3     0.0323973977628     -0.056837601009               0.025
         4     0.0407615297248    -0.0523703657591               0.025
         5     0.0470579428502    -0.0452987813697               0.025
         6     0.0501279228962    -0.0363476208918               0.025
         7       0.04999781032    -0.0268628919141               0.025
         8     0.0461337009062    -0.0182931563428               0.025
         9      0.038144187699    -0.0133431302869               0.025
        10     0.0287091440349      -0.01245214761               0.025
        11     0.0192220296389    -0.0132639061919               0.025
        12    0.00975412488695    -0.0142904230442               0.025
        13    0.00024558365356    -0.0143682265019               0.025
        14   -0.00866201046048    -0.0112840638409               0.025
        15    -0.0132499421849   -0.00325973703232               0.025
        16    -0.0126174684412    0.00616815529533               0.025
        17   -0.00654601563627     0.0131334461311               0.025
        18    0.00259966187257     0.0155145570804               0.025
        19     0.0120510349365     0.0146648628442               0.025
        20     0.0210709986574     0.0116162906916               0.025
# ... 15758 like lines cut
#---1----|----2----|----3----|----4----|----5----|----6----|----7----|----8----|----9----|---10----|
/SHELL/1
         1       203      3947      3951      3950
         2       989      3948      3951      3947
         3       993      3949      3951      3948
         4       992      3950      3951      3949
         5       204      3952      3955      3954
         6       990      3953      3955      3952
         7       993      3948      3955      3953
         8       989      3954      3955      3948
         9       201      3956      3959      3958
        10       991      3957      3959      3956
        11       993      3953      3959      3957
        12       990      3958      3959      3953
        13       202      3960      3962      3961
        14       992      3949      3962      3960
        15       993      3957      3962      3949
        16       991      3961      3962      3957
        17       442      3963      3967      3966
        18       994      3964      3967      3963
        19       998      3965      3967      3964
        20       997      3966      3967      3965
# ... 15756 like lines cut
#---1----|----2----|----3----|----4----|----5----|----6----|----7----|----8----|----9----|---10----|
/GRNOD/PART/1
all film nodes (free-free; no 3-2-1 pins)
         1
#---1----|----2----|----3----|----4----|----5----|----6----|----7----|----8----|----9----|---10----|
/DAMP/1
Rayleigh mass damping (rho unchanged); free-free RB sink with engine /ADYREL
                  80                 0.0         1         0                 0.0               1E+30
#---1----|----2----|----3----|----4----|----5----|----6----|----7----|----8----|----9----|---10----|
/SURF/PART/1
closed all-quad film; outward normals; +PLOAD inflates
         1
#---1----|----2----|----3----|----4----|----5----|----6----|----7----|----8----|----9----|---10----|
/INTER/TYPE19/1
self-contact kiss Gapmin=0.000762 m (=CONTACT_KISS, not puffy)
         1         0         5         0         4         2         0      1000         0
#          Fscalegap               Gapmax      Edge_scale_gap
                   1                 0.0                   1
#             Stmin                Stmax           mesh_size                dtmin  Irem_gap   Irem_i2
                 0.0                 0.0                 0.4               1E-06         2         2
#              Stfac                 Fric               Gapmin               Tstart                Tstop
                   1                 0.1            0.000762                 0.0               1E+30
#      IBC                        Inacti                VISs                VISf              Bumult
       000                             6                0.05                   1                 0.2
#     Ifric    Ifiltr               Xfreq     Iform   sens_ID                                 fric_ID
         0         0                 0.0         1         0                                       0
#---1----|----2----|----3----|----4----|----5----|----6----|----7----|----8----|----9----|---10----|
/FUNCT/1
PLOAD ramp 0-1 over 0.04s then hold; Fscale=65000 Pa
                 0.0                 0.0
                0.04                   1
                0.05                   1
                1.05                   1
#---1----|----2----|----3----|----4----|----5----|----6----|----7----|----8----|----9----|---10----|
/PLOAD/1
internal pressure on film (positive = outward / inflate)
         1         1         0         0         1         0                   1               65000
#---1----|----2----|----3----|----4----|----5----|----6----|----7----|----8----|----9----|---10----|
# Time history: variables before object IDs (Radioss /TH). λ,V,Ψ from ANIM/VTK.
/TH/PART/1
part energy
DEF
         1
/TH/INTER/1
TYPE19 contact
DEF
         1
#---1----|----2----|----3----|----4----|----5----|----6----|----7----|----8----|----9----|---10----|
/END
